Version 4.1
SHEET 1 1316 680
WIRE -464 -80 -496 -80
WIRE -352 -80 -384 -80
WIRE -272 -80 -352 -80
WIRE -192 -80 -272 -80
WIRE 32 -80 -192 -80
WIRE 80 -80 32 -80
WIRE 240 -80 144 -80
WIRE -496 -64 -496 -80
WIRE 304 -64 304 -80
WIRE 304 -64 144 -64
WIRE 400 -64 304 -64
WIRE 592 -64 480 -64
WIRE 752 -64 592 -64
WIRE 864 -64 752 -64
WIRE 1008 -64 864 -64
WIRE 1152 -64 1008 -64
WIRE 1296 -64 1232 -64
WIRE 32 -48 32 -80
WIRE 80 -48 32 -48
WIRE 752 -48 752 -64
WIRE 192 -32 144 -32
WIRE 80 -16 -112 -16
WIRE 368 -16 144 -16
WIRE -352 16 -352 -16
WIRE -272 16 -272 -16
WIRE -192 16 -192 -16
WIRE 80 16 -32 16
WIRE 224 16 144 16
WIRE -32 48 -32 16
WIRE -496 64 -496 16
WIRE 368 64 368 -16
WIRE 592 64 592 0
WIRE 592 64 368 64
WIRE 752 64 752 32
WIRE 752 64 592 64
WIRE 864 64 864 0
WIRE 1008 64 1008 0
WIRE 1296 64 1296 -64
WIRE 224 144 224 16
WIRE 752 144 752 64
WIRE -112 160 -112 -16
WIRE -32 160 -32 112
WIRE 752 288 752 224
FLAG -352 16 0
FLAG -272 16 0
FLAG -192 16 0
FLAG -32 160 0
FLAG 224 144 0
FLAG 192 -32 0
FLAG 752 288 0
FLAG 864 64 0
FLAG 1008 64 0
FLAG -112 160 0
FLAG -496 64 0
FLAG 1296 64 0
SYMBOL LMR36520A_TRANS 112 -32 R0
SYMATTR InstName U1
SYMBOL cap -48 48 R0
SYMATTR InstName C4
SYMATTR Value 1”
SYMBOL cap 304 -96 R90
WINDOW 0 0 32 VBottom 2
WINDOW 3 32 32 VTop 2
SYMATTR InstName C5
SYMATTR Value .1”
SYMBOL ind 384 -48 R270
WINDOW 0 32 56 VTop 2
WINDOW 3 5 56 VBottom 2
SYMATTR InstName L1
SYMATTR Value 22”
SYMBOL cap 576 -64 R0
SYMATTR InstName C6
SYMATTR Value 22p
SYMBOL cap 848 -64 R0
SYMATTR InstName C7
SYMATTR Value 22”
SYMBOL cap 992 -64 R0
SYMATTR InstName C8
SYMATTR Value 22”
SYMBOL res 736 -64 R0
SYMATTR InstName R1
SYMATTR Value 100k
SYMBOL res 736 128 R0
SYMATTR InstName R2
SYMATTR Value 24.9k
SYMBOL cap -288 -80 R0
SYMATTR InstName C1
SYMATTR Value 4.7”
SYMBOL cap -208 -80 R0
SYMATTR InstName C2
SYMATTR Value 220n
SYMBOL cap -368 -80 R0
SYMATTR InstName C3
SYMATTR Value 4.7”
SYMBOL voltage -496 -80 R0
WINDOW 123 0 0 Left 0
WINDOW 39 0 0 Left 0
SYMATTR InstName V1
SYMATTR Value PWL(0 0 1u 24)
SYMBOL res 1248 -80 R90
WINDOW 0 0 56 VBottom 2
WINDOW 3 32 56 VTop 2
SYMATTR InstName R3
SYMATTR Value .1
SYMBOL res -368 -96 R90
WINDOW 0 0 56 VBottom 2
WINDOW 3 32 56 VTop 2
SYMATTR InstName R4
SYMATTR Value .01
TEXT -352 264 Left 2 !.include C:\\Users\\aidsh\\Documents\\lib\\sub\\LMR36520A_TRANS.lib
TEXT -344 376 Left 2 !.tran 0 1s 0 1u
