Version 4.1
SHEET 1 1316 680
WIRE -752 -80 -896 -80
WIRE -592 -80 -752 -80
WIRE -464 -80 -512 -80
WIRE -400 -80 -464 -80
WIRE -240 -80 -400 -80
WIRE 32 -80 -240 -80
WIRE 80 -80 32 -80
WIRE 240 -80 240 -112
WIRE 240 -80 144 -80
WIRE -896 -64 -896 -80
WIRE 304 -64 304 -112
WIRE 304 -64 144 -64
WIRE 400 -64 304 -64
WIRE 528 -64 480 -64
WIRE 592 -64 528 -64
WIRE 1040 -64 592 -64
WIRE 1152 -64 1040 -64
WIRE 32 -48 32 -80
WIRE 80 -48 32 -48
WIRE 192 -32 144 -32
WIRE 80 -16 -112 -16
WIRE 240 -16 144 -16
WIRE 368 -16 240 -16
WIRE 528 -16 528 -64
WIRE 592 -16 592 -64
WIRE -752 16 -752 -16
WIRE 80 16 -32 16
WIRE 224 16 144 16
WIRE -32 48 -32 16
WIRE -896 64 -896 16
WIRE 528 96 528 48
WIRE 560 96 528 96
WIRE 592 96 592 48
WIRE 592 96 560 96
WIRE 224 144 224 16
WIRE 560 144 560 96
WIRE -112 160 -112 -16
WIRE -32 160 -32 112
WIRE 1040 336 1040 -64
WIRE 368 432 368 -16
WIRE 1040 432 1040 416
WIRE 1040 432 368 432
WIRE 1040 464 1040 432
WIRE 1040 592 1040 544
FLAG -752 16 0
FLAG -32 160 0
FLAG 224 144 0
FLAG 192 -32 0
FLAG -112 160 0
FLAG -896 64 0
FLAG 240 -16 FB
FLAG -464 -16 0
FLAG -400 -16 0
FLAG -240 -16 0
FLAG 1040 592 0
FLAG 560 144 0
SYMBOL LMR36520A_TRANS 112 -32 R0
SYMATTR InstName U1
SYMBOL cap -48 48 R0
SYMATTR InstName C4
SYMATTR Value 1”
SYMBOL cap 304 -128 R90
WINDOW 0 0 32 VBottom 2
WINDOW 3 32 32 VTop 2
SYMATTR InstName C5
SYMATTR Value 100n
SYMBOL ind 384 -48 R270
WINDOW 0 32 56 VTop 2
WINDOW 3 5 56 VBottom 2
SYMATTR InstName L1
SYMATTR Value 10”
SYMBOL cap -768 -80 R0
SYMATTR InstName C3
SYMATTR Value 10”
SYMBOL voltage -896 -80 R0
WINDOW 123 0 0 Left 0
WINDOW 39 0 0 Left 0
SYMATTR InstName V1
SYMATTR Value 24
SYMBOL ind -608 -64 R270
WINDOW 0 32 56 VTop 2
WINDOW 3 5 56 VBottom 2
SYMATTR InstName L2
SYMATTR Value 4.7”
SYMBOL cap -480 -80 R0
SYMATTR InstName C2
SYMATTR Value 22”
SYMBOL cap -416 -80 R0
SYMATTR InstName C9
SYMATTR Value 10”
SYMBOL cap -256 -80 R0
SYMATTR InstName C11
SYMATTR Value 220n
SYMBOL cap 512 -16 R0
SYMATTR InstName C6
SYMATTR Value 22”
SYMBOL cap 576 -16 R0
SYMATTR InstName C12
SYMATTR Value 22”
SYMBOL res 1024 320 R0
SYMATTR InstName R
SYMATTR Value 118k
SYMBOL res 1024 448 R0
SYMATTR InstName R4
SYMATTR Value 51k
TEXT -352 264 Left 2 !.include C:\\Users\\aidsh\\Documents\\lib\\sub\\LMR36520A_TRANS.lib
TEXT -400 408 Left 2 !.tran 0 5m startup
